sim: ** starting performance simulation **

sim: ** simulation statistics **
sim_num_insn                6159524 # total number of instructions committed
sim_num_refs                4791958 # total number of loads and stores committed
sim_num_loads               2415610 # total number of loads committed
sim_num_stores         2376348.0000 # total number of stores committed
sim_num_branches             298761 # total number of branches committed
sim_elapsed_time                  9 # total simulation time in seconds
sim_inst_rate           684391.5556 # simulation speed (in insts/sec)
sim_total_insn              6164129 # total number of instructions executed
sim_total_refs              4793644 # total number of loads and stores executed
sim_total_loads             2416626 # total number of loads executed
sim_total_stores       2377018.0000 # total number of stores executed
sim_total_branches           298984 # total number of branches executed
sim_cycle                  11343872 # total simulation time in cycles
sim_IPC                      0.5430 # instructions per cycle
sim_CPI                      1.8417 # cycles per instruction
sim_exec_BW                  0.5434 # total instructions (mis-spec + committed) per cycle
sim_IPB                     20.6169 # instruction per branch
IFQ_count                  44543490 # cumulative IFQ occupancy
IFQ_fcount                 10987006 # cumulative IFQ full count
ifq_occupancy                3.9267 # avg IFQ occupancy (insn's)
ifq_rate                     0.5434 # avg IFQ dispatch rate (insn/cycle)
ifq_latency                  7.2262 # avg IFQ occupant latency (cycle's)
ifq_full                     0.9685 # fraction of time (cycle's) IFQ was full
RUU_count                 210080813 # cumulative RUU occupancy
RUU_fcount                   379934 # cumulative RUU full count
ruu_occupancy               18.5193 # avg RUU occupancy (insn's)
ruu_rate                     0.5434 # avg RUU dispatch rate (insn/cycle)
ruu_latency                 34.0812 # avg RUU occupant latency (cycle's)
ruu_full                     0.0335 # fraction of time (cycle's) RUU was full
LSQ_count                 176783013 # cumulative LSQ occupancy
LSQ_fcount                  9967835 # cumulative LSQ full count
lsq_occupancy               15.5840 # avg LSQ occupancy (insn's)
lsq_rate                     0.5434 # avg LSQ dispatch rate (insn/cycle)
lsq_latency                 28.6793 # avg LSQ occupant latency (cycle's)
lsq_full                     0.8787 # fraction of time (cycle's) LSQ was full
sim_slip                  397779975 # total number of slip cycles
avg_sim_slip                64.5797 # the average slip between issue and retirement
bpred_comb.lookups           299040 # total number of bpred lookups
bpred_comb.updates           298761 # total number of updates
bpred_comb.addr_hits         298310 # total number of address-predicted hits
bpred_comb.dir_hits          298403 # total number of direction-predicted hits (includes addr-hits)
bpred_comb.used_bimod        296127 # total number of bimodal predictions used
bpred_comb.used_2lev            887 # total number of 2-level predictions used
bpred_comb.misses               358 # total number of misses
bpred_comb.jr_hits              459 # total number of address-predicted hits for JR's
bpred_comb.jr_seen              468 # total number of JR's seen
bpred_comb.jr_non_ras_hits.PP          129 # total number of address-predicted hits for non-RAS JR's
bpred_comb.jr_non_ras_seen.PP          130 # total number of non-RAS JR's seen
bpred_comb.bpred_addr_rate    0.9985 # branch address-prediction rate (i.e., addr-hits/updates)
bpred_comb.bpred_dir_rate    0.9988 # branch direction-prediction rate (i.e., all-hits/updates)
bpred_comb.bpred_jr_rate    0.9808 # JR address-prediction rate (i.e., JR addr-hits/JRs seen)
bpred_comb.bpred_jr_non_ras_rate.PP    0.9923 # non-RAS JR addr-pred rate (ie, non-RAS JR hits/JRs seen)
bpred_comb.retstack_pushes          388 # total number of address pushed onto ret-addr stack
bpred_comb.retstack_pops          363 # total number of address popped off of ret-addr stack
bpred_comb.used_ras.PP          338 # total number of RAS predictions used
bpred_comb.ras_hits.PP          330 # total number of RAS hits
bpred_comb.ras_rate.PP    0.9763 # RAS prediction rate (i.e., RAS hits/used RAS)
il1.accesses                6163867 # total number of accesses
il1.hits                    6163346 # total number of hits
il1.misses                      521 # total number of misses
il1.replacements                135 # total number of replacements
il1.writebacks                    0 # total number of writebacks
il1.invalidations                 0 # total number of invalidations
il1.miss_rate                0.0001 # miss rate (i.e., misses/ref)
il1.repl_rate                0.0000 # replacement rate (i.e., repls/ref)
il1.wb_rate                  0.0000 # writeback rate (i.e., wrbks/ref)
il1.inv_rate                 0.0000 # invalidation rate (i.e., invs/ref)
dl1.accesses                4791501 # total number of accesses
dl1.hits                    4221532 # total number of hits
dl1.misses                   569969 # total number of misses
dl1.replacements             569457 # total number of replacements
dl1.writebacks               299364 # total number of writebacks
dl1.invalidations                 0 # total number of invalidations
dl1.miss_rate                0.1190 # miss rate (i.e., misses/ref)
dl1.repl_rate                0.1188 # replacement rate (i.e., repls/ref)
dl1.wb_rate                  0.0625 # writeback rate (i.e., wrbks/ref)
dl1.inv_rate                 0.0000 # invalidation rate (i.e., invs/ref)
ul2.accesses                 869854 # total number of accesses
ul2.hits                     721137 # total number of hits
ul2.misses                   148717 # total number of misses
ul2.replacements             144621 # total number of replacements
ul2.writebacks               118559 # total number of writebacks
ul2.invalidations                 0 # total number of invalidations
ul2.miss_rate                0.1710 # miss rate (i.e., misses/ref)
ul2.repl_rate                0.1663 # replacement rate (i.e., repls/ref)
ul2.wb_rate                  0.1363 # writeback rate (i.e., wrbks/ref)
ul2.inv_rate                 0.0000 # invalidation rate (i.e., invs/ref)
itlb.accesses               6163867 # total number of accesses
itlb.hits                   6163860 # total number of hits
itlb.misses                       7 # total number of misses
itlb.replacements                 0 # total number of replacements
itlb.writebacks                   0 # total number of writebacks
itlb.invalidations                0 # total number of invalidations
itlb.miss_rate               0.0000 # miss rate (i.e., misses/ref)
itlb.repl_rate               0.0000 # replacement rate (i.e., repls/ref)
itlb.wb_rate                 0.0000 # writeback rate (i.e., wrbks/ref)
itlb.inv_rate                0.0000 # invalidation rate (i.e., invs/ref)
dtlb.accesses               4792230 # total number of accesses
dtlb.hits                   4785073 # total number of hits
dtlb.misses                    7157 # total number of misses
dtlb.replacements              7029 # total number of replacements
dtlb.writebacks                   0 # total number of writebacks
dtlb.invalidations                0 # total number of invalidations
dtlb.miss_rate               0.0015 # miss rate (i.e., misses/ref)
dtlb.repl_rate               0.0015 # replacement rate (i.e., repls/ref)
dtlb.wb_rate                 0.0000 # writeback rate (i.e., wrbks/ref)
dtlb.inv_rate                0.0000 # invalidation rate (i.e., invs/ref)
sim_invalid_addrs                 0 # total non-speculative bogus addresses seen (debug var)
ld_text_base             0x00400000 # program text (code) segment base
ld_text_size                  27232 # program text (code) size in bytes
ld_data_base             0x10000000 # program initialized data segment base
ld_data_size                   4096 # program init'ed `.data' and uninit'ed `.bss' size in bytes
ld_stack_base            0x7fffc000 # program stack segment base (highest address in stack)
ld_stack_size                 16384 # program initial stack size
ld_prog_entry            0x00400140 # program entry point (initial PC)
ld_environ_base          0x7fff8000 # program environment base address address
ld_target_big_endian              0 # target executable endian-ness, non-zero if big endian
mem.page_count                  403 # total number of pages allocated
mem.page_mem                  1612k # total size of memory pages allocated
mem.ptab_misses             1537085 # total first level page table misses
mem.ptab_accesses          61825583 # total page table accesses
mem.ptab_miss_rate           0.0249 # first level page table miss rate


